some text
another text
some additional text
strange line
New line.
