some text
another text
some additional text
strange line
New line.
add new line just for test
nice string.
