some text
another text
some additional text
New line.
