some text
another text
some additional text
strange line
New line.
add new line just for test
change in the test brunch
nice string.
111111111111
2222
3333333333
121212
