some text
another text
some additional text
New line.
add new line just for test
