111
New line.
file was changed by fortegente
