clear commit
some changes
some changes 2
New line.

New line.
Another user email.
some changes 3
Another user email.
