clear commit
some changes
some changes 2
New line.
Deleted line which was done before
Some chages-testing pull request conflicts
