clear commit
some changes
some changes 2
New line.
Another user email.
Some chages-testing pull request conflicts
